<?xml version="1.0" encoding="UTF-8"?>

<!-- generated on 2024-09-10 15:34:04 by Eclipse SUMO netedit Version 1.20.0
<configuration xmlns:xsi="http://www.w3.org/2001/XMLSchema-instance" xsi:noNamespaceSchemaLocation="http://sumo.dlr.de/xsd/neteditConfiguration.xsd">

    <input>
        <sumocfg-file value="C:\Users\Yasin\Desktop\OPEVA\Mapping\rml_uyumlu_rota\dennn.sumocfg"/>
        <additional-files value="C:\Users\Yasin\Desktop\OPEVA\Mapping\rml_uyumlu_rota\cs.add.xml"/>
        <route-files value="C:\Users\Yasin\Desktop\OPEVA\Mapping\rml_uyumlu_rota\denn.rou.xml"/>
        <sumo-net-file value="C:\Users\Yasin\Desktop\OPEVA\Mapping\rml_uyumlu_rota\osm.net.xml"/>
    </input>

    <output>
        <output-file value="C:\Users\Yasin\Desktop\OPEVA\Mapping\rml_uyumlu_rota\osm.net.xml"/>
        <output.street-names value="true"/>
    </output>

    <processing>
        <geometry.min-radius.fix.railways value="false"/>
        <geometry.max-grade.fix value="false"/>
        <offset.disable-normalization value="true"/>
        <lefthand value="0"/>
    </processing>

    <junctions>
        <no-turnarounds value="true"/>
        <junctions.corner-detail value="5"/>
        <junctions.limit-turn-speed value="5.50"/>
        <rectangular-lane-cut value="0"/>
    </junctions>

    <pedestrian>
        <walkingareas value="0"/>
    </pedestrian>

</configuration>
-->

<net version="1.20" junctionCornerDetail="5" limitTurnSpeed="5.50" xmlns:xsi="http://www.w3.org/2001/XMLSchema-instance" xsi:noNamespaceSchemaLocation="http://sumo.dlr.de/xsd/net_file.xsd">

    <location netOffset="-278956.86,-4400294.47" convBoundary="0.00,0.00,6315.04,4782.72" origBoundary="30.420349,39.725431,30.513154,39.768309" projParameter="+proj=utm +zone=36 +ellps=WGS84 +datum=WGS84 +units=m +no_defs"/>

    <type id="highway.cycleway" priority="1" numLanes="1" speed="5.56" allow="bicycle" oneway="0" width="1.00"/>
    <type id="highway.footway" priority="1" numLanes="1" speed="2.78" allow="pedestrian" oneway="1" width="2.00"/>
    <type id="highway.path" priority="1" numLanes="1" speed="5.56" allow="pedestrian bicycle" oneway="0" width="2.00"/>
    <type id="highway.pedestrian" priority="1" numLanes="1" speed="2.78" allow="pedestrian" oneway="1" width="2.00"/>
    <type id="highway.primary" priority="12" numLanes="2" speed="27.78" disallow="tram rail_urban rail rail_electric rail_fast ship" oneway="0"/>
    <type id="highway.primary_link" priority="7" numLanes="1" speed="22.22" disallow="tram rail_urban rail rail_electric rail_fast ship" oneway="0"/>
    <type id="highway.residential" priority="3" numLanes="1" speed="13.89" disallow="tram rail_urban rail rail_electric rail_fast ship" oneway="0"/>
    <type id="highway.service" priority="1" numLanes="1" speed="5.56" allow="pedestrian delivery bicycle" oneway="0"/>
    <type id="highway.steps" priority="1" numLanes="1" speed="1.39" allow="pedestrian" oneway="1" width="2.00"/>
    <type id="highway.tertiary" priority="10" numLanes="1" speed="22.22" disallow="tram rail_urban rail rail_electric rail_fast ship" oneway="0"/>
    <type id="highway.track" priority="1" numLanes="1" speed="5.56" allow="pedestrian motorcycle moped bicycle" oneway="0"/>
    <type id="highway.unclassified" priority="4" numLanes="1" speed="13.89" disallow="tram rail_urban rail rail_electric rail_fast ship" oneway="0"/>

    <edge id=":2225294561_0" function="internal">
        <lane id=":2225294561_0_0" index="0" disallow="tram rail_urban rail rail_electric rail_fast ship cable_car subway" speed="5.56" length="9.63" shape="4860.35,2476.42 4859.91,2473.71 4858.82,2471.72 4857.07,2470.45 4854.68,2469.92"/>
    </edge>
    <edge id=":2225294561_1" function="internal">
        <lane id=":2225294561_1_0" index="0" disallow="tram rail_urban rail rail_electric rail_fast ship cable_car subway" speed="5.56" length="14.67" shape="4860.35,2476.42 4860.78,2472.36 4862.43,2469.56 4865.29,2468.04 4869.37,2467.79"/>
    </edge>
    <edge id=":2225294561_2" function="internal">
        <lane id=":2225294561_2_0" index="0" disallow="tram rail_urban rail rail_electric rail_fast ship cable_car subway" speed="3.65" length="4.67" shape="4860.35,2476.42 4861.10,2475.19 4861.89,2474.76 4862.70,2475.13 4863.55,2476.30"/>
    </edge>
    <edge id=":2225294561_3" function="internal">
        <lane id=":2225294561_3_0" index="0" disallow="tram rail_urban rail rail_electric rail_fast ship cable_car subway" speed="5.56" length="9.04" shape="4869.11,2470.98 4866.60,2471.13 4864.83,2472.07 4863.81,2473.79 4863.55,2476.30"/>
    </edge>
    <edge id=":2225294561_4" function="internal">
        <lane id=":2225294561_4_0" index="0" disallow="tram rail_urban rail rail_electric rail_fast ship cable_car subway" speed="5.56" length="14.47" shape="4869.11,2470.98 4854.68,2469.92"/>
    </edge>
    <edge id=":2225294561_5" function="internal">
        <lane id=":2225294561_5_0" index="0" disallow="tram rail_urban rail rail_electric rail_fast ship cable_car subway" speed="3.65" length="4.67" shape="4869.11,2470.98 4867.98,2470.08 4867.65,2469.25 4868.11,2468.49 4869.37,2467.79"/>
    </edge>
    <edge id=":2225294561_6" function="internal">
        <lane id=":2225294561_6_0" index="0" disallow="tram rail_urban rail rail_electric rail_fast ship cable_car subway" speed="5.56" length="14.53" shape="4854.89,2466.72 4869.37,2467.79"/>
    </edge>
    <edge id=":2225294561_7" function="internal">
        <lane id=":2225294561_7_0" index="0" disallow="tram rail_urban rail rail_electric rail_fast ship cable_car subway" speed="5.56" length="14.41" shape="4854.89,2466.72 4858.55,2467.52 4861.21,2469.38 4862.88,2472.31 4863.55,2476.30"/>
    </edge>
    <edge id=":2225294561_8" function="internal">
        <lane id=":2225294561_8_0" index="0" disallow="tram rail_urban rail rail_electric rail_fast ship cable_car subway" speed="3.65" length="4.67" shape="4854.89,2466.72 4856.03,2467.60 4856.38,2468.42 4855.93,2469.19 4854.68,2469.92"/>
    </edge>
    <edge id=":2225294602_0" function="internal">
        <lane id=":2225294602_0_0" index="0" speed="5.56" length="11.94" shape="4874.17,2683.04 4862.23,2683.21"/>
    </edge>
    <edge id=":2225294602_1" function="internal">
        <lane id=":2225294602_1_0" index="0" disallow="tram rail_urban rail rail_electric rail_fast ship cable_car subway" speed="5.56" length="12.31" shape="4874.17,2683.04 4871.34,2682.46 4869.27,2680.83 4867.97,2678.14 4867.45,2674.38"/>
    </edge>
    <edge id=":2225294602_2" function="internal">
        <lane id=":2225294602_2_0" index="0" speed="3.65" length="4.67" shape="4874.17,2683.04 4872.98,2682.22 4872.59,2681.42 4873.00,2680.62 4874.22,2679.84"/>
    </edge>
    <edge id=":2225294602_3" function="internal">
        <lane id=":2225294602_3_0" index="0" disallow="tram rail_urban rail rail_electric rail_fast ship cable_car subway" speed="5.56" length="7.35" shape="4870.64,2674.28 4870.94,2676.69 4871.63,2678.42 4872.72,2679.47 4874.22,2679.84"/>
    </edge>
    <edge id=":2225294602_4" function="internal">
        <lane id=":2225294602_4_0" index="0" disallow="tram rail_urban rail rail_electric rail_fast ship cable_car subway" speed="5.56" length="14.00" shape="4870.64,2674.28 4870.23,2678.07 4868.68,2680.83 4866.02,2682.54 4862.23,2683.21"/>
    </edge>
    <edge id=":2225294602_5" function="internal">
        <lane id=":2225294602_5_0" index="0" disallow="tram rail_urban rail rail_electric rail_fast ship cable_car subway" speed="3.65" length="4.67" shape="4870.64,2674.28 4869.88,2675.50 4869.10,2675.93 4868.29,2675.56 4867.45,2674.38"/>
    </edge>
    <edge id=":2225294602_6" function="internal">
        <lane id=":2225294602_6_0" index="0" disallow="tram rail_urban rail rail_electric rail_fast ship cable_car subway" speed="5.56" length="8.88" shape="4862.19,2680.10 4864.56,2679.70 4866.22,2678.61 4867.19,2676.84 4867.45,2674.38"/>
    </edge>
    <edge id=":2225294602_7" function="internal">
        <lane id=":2225294602_7_0" index="0" speed="5.56" length="12.03" shape="4862.19,2680.10 4874.22,2679.84"/>
    </edge>
    <edge id=":2225294602_8" function="internal">
        <lane id=":2225294602_8_0" index="0" speed="3.62" length="4.55" shape="4862.19,2680.10 4863.36,2680.86 4863.76,2681.64 4863.39,2682.42 4862.23,2683.21"/>
    </edge>
    <edge id=":2225294604_0" function="internal">
        <lane id=":2225294604_0_0" index="0" disallow="tram rail_urban rail rail_electric rail_fast ship cable_car subway" speed="13.89" length="14.29" shape="4826.37,2689.74 4825.93,2675.46"/>
    </edge>
    <edge id=":2225294604_1" function="internal">
        <lane id=":2225294604_1_0" index="0" disallow="tram rail_urban rail rail_electric rail_fast ship cable_car subway" speed="8.00" length="4.00" shape="4826.37,2689.74 4826.83,2685.89 4826.89,2685.79"/>
    </edge>
    <edge id=":2225294604_7" function="internal">
        <lane id=":2225294604_7_0" index="0" disallow="tram rail_urban rail rail_electric rail_fast ship cable_car subway" speed="8.00" length="10.17" shape="4826.89,2685.79 4828.42,2683.11 4831.12,2681.40 4834.95,2680.76"/>
    </edge>
    <edge id=":2225294604_2" function="internal">
        <lane id=":2225294604_2_0" index="0" disallow="tram rail_urban rail rail_electric rail_fast ship cable_car subway" speed="6.51" length="9.01" shape="4835.03,2683.95 4832.59,2684.36 4830.87,2685.45 4829.86,2687.22 4829.57,2689.67"/>
    </edge>
    <edge id=":2225294604_3" function="internal">
        <lane id=":2225294604_3_0" index="0" disallow="tram rail_urban rail rail_electric rail_fast ship cable_car subway" speed="8.03" length="14.15" shape="4835.03,2683.95 4831.18,2683.50 4828.38,2681.94 4826.63,2679.26 4825.93,2675.46"/>
    </edge>
    <edge id=":2225294604_4" function="internal">
        <lane id=":2225294604_4_0" index="0" speed="3.65" length="4.66" shape="4835.03,2683.95 4833.81,2683.18 4833.39,2682.39 4833.77,2681.59 4834.95,2680.76"/>
    </edge>
    <edge id=":2225294604_5" function="internal">
        <lane id=":2225294604_5_0" index="0" disallow="tram rail_urban rail rail_electric rail_fast ship cable_car subway" speed="6.55" length="9.04" shape="4829.13,2675.33 4829.58,2677.76 4830.69,2679.47 4832.49,2680.47 4834.95,2680.76"/>
    </edge>
    <edge id=":2225294604_6" function="internal">
        <lane id=":2225294604_6_0" index="0" disallow="tram rail_urban rail rail_electric rail_fast ship cable_car subway" speed="13.89" length="14.35" shape="4829.13,2675.33 4829.57,2689.67"/>
    </edge>
    <edge id=":2225294620_0" function="internal">
        <lane id=":2225294620_0_0" index="0" disallow="tram rail_urban rail rail_electric rail_fast ship cable_car subway" speed="13.89" length="6.98" shape="4699.67,2724.27 4699.42,2717.30"/>
    </edge>
    <edge id=":2225294620_1" function="internal">
        <lane id=":2225294620_1_0" index="0" allow="pedestrian bicycle" speed="4.66" length="4.53" width="2.00" shape="4705.89,2721.57 4704.53,2721.77 4703.58,2722.27 4703.02,2723.07 4702.87,2724.17"/>
    </edge>
    <edge id=":2225294620_2" function="internal">
        <lane id=":2225294620_2_0" index="0" allow="pedestrian bicycle" speed="6.30" length="8.75" width="2.00" shape="4705.89,2721.57 4703.12,2721.38 4701.12,2720.60 4699.89,2719.24 4699.42,2717.30"/>
    </edge>
    <edge id=":2225294620_3" function="internal">
        <lane id=":2225294620_3_0" index="0" disallow="tram rail_urban rail rail_electric rail_fast ship cable_car subway" speed="13.89" length="6.99" shape="4702.62,2717.18 4702.87,2724.17"/>
    </edge>
    <edge id=":2225294623_0" function="internal">
        <lane id=":2225294623_0_0" index="0" disallow="tram rail_urban rail rail_electric rail_fast ship cable_car subway" speed="13.89" length="10.51" shape="5816.42,2740.14 5816.32,2729.62"/>
    </edge>
    <edge id=":2225294623_1" function="internal">
        <lane id=":2225294623_1_0" index="0" disallow="tram rail_urban rail rail_electric rail_fast ship cable_car subway" speed="13.89" length="10.49" shape="5819.52,2729.61 5819.62,2740.10"/>
    </edge>
    <edge id=":2225294623_2" function="internal">
        <lane id=":2225294623_2_0" index="0" allow="pedestrian bicycle" speed="2.78" length="2.69" width="2.00" shape="5811.68,2737.88 5812.49,2737.67 5812.98,2737.81 5813.17,2738.28 5813.06,2739.11"/>
    </edge>
    <edge id=":2225294627_0" function="internal">
        <lane id=":2225294627_0_0" index="0" disallow="tram rail_urban rail rail_electric rail_fast ship cable_car subway" speed="6.42" length="8.71" shape="4709.74,2784.15 4707.45,2784.49 4705.80,2785.52 4704.80,2787.25 4704.45,2789.68"/>
    </edge>
    <edge id=":2225294627_1" function="internal">
        <lane id=":2225294627_1_0" index="0" disallow="tram rail_urban rail rail_electric rail_fast ship cable_car subway" speed="7.97" length="13.83" shape="4709.74,2784.15 4706.06,2783.59 4703.41,2781.96 4701.79,2779.25 4701.19,2775.45"/>
    </edge>
    <edge id=":2225294627_2" function="internal">
        <lane id=":2225294627_2_0" index="0" disallow="tram rail_urban rail rail_electric rail_fast ship cable_car subway" speed="3.65" length="4.67" shape="4709.74,2784.15 4708.54,2783.34 4708.14,2782.54 4708.55,2781.74 4709.75,2780.95"/>
    </edge>
    <edge id=":2225294627_3" function="internal">
        <lane id=":2225294627_3_0" index="0" disallow="tram rail_urban rail rail_electric rail_fast ship cable_car subway" speed="6.47" length="8.75" shape="4704.39,2775.39 4704.77,2777.82 4705.79,2779.55 4707.45,2780.59 4709.75,2780.95"/>
    </edge>
    <edge id=":2225294627_4" function="internal">
        <lane id=":2225294627_4_0" index="0" disallow="tram rail_urban rail rail_electric rail_fast ship cable_car subway" speed="13.89" length="14.29" shape="4704.39,2775.39 4704.45,2789.68"/>
    </edge>
    <edge id=":2225294627_5" function="internal">
        <lane id=":2225294627_5_0" index="0" disallow="tram rail_urban rail rail_electric rail_fast ship cable_car subway" speed="13.89" length="14.19" shape="4701.25,2789.65 4701.19,2775.45"/>
    </edge>
    <edge id=":2225294627_6" function="internal">
        <lane id=":2225294627_6_0" index="0" disallow="tram rail_urban rail rail_electric rail_fast ship cable_car subway" speed="7.93" length="3.99" shape="4701.25,2789.65 4701.82,2785.83 4701.88,2785.72"/>
    </edge>
    <edge id=":2225294627_7" function="internal">
        <lane id=":2225294627_7_0" index="0" disallow="tram rail_urban rail rail_electric rail_fast ship cable_car subway" speed="7.93" length="9.86" shape="4701.88,2785.72 4703.42,2783.11 4706.07,2781.48 4709.75,2780.95"/>
    </edge>
    <edge id=":2225294628_0" function="internal">
        <lane id=":2225294628_0_0" index="0" disallow="tram rail_urban rail rail_electric rail_fast ship cable_car subway" speed="13.89" length="14.39" shape="4829.16,2805.32 4828.89,2790.93"/>
    </edge>
    <edge id=":2225294628_1" function="internal">
        <lane id=":2225294628_1_0" index="0" disallow="tram rail_urban rail rail_electric rail_fast ship cable_car subway" speed="7.97" length="4.07" shape="4829.16,2805.32 4829.65,2801.43 4829.72,2801.30"/>
    </edge>
    <edge id=":2225294628_7" function="internal">
        <lane id=":2225294628_7_0" index="0" disallow="tram rail_urban rail rail_electric rail_fast ship cable_car subway" speed="7.97" length="10.18" shape="4829.72,2801.30 4831.26,2798.66 4834.00,2796.98 4837.87,2796.42"/>
    </edge>
    <edge id=":2225294628_2" function="internal">
        <lane id=":2225294628_2_0" index="0" disallow="tram rail_urban rail rail_electric rail_fast ship cable_car subway" speed="6.48" length="9.03" shape="4837.88,2799.62 4835.43,2799.98 4833.69,2801.04 4832.67,2802.80 4832.36,2805.26"/>
    </edge>
    <edge id=":2225294628_3" function="internal">
        <lane id=":2225294628_3_0" index="0" disallow="tram rail_urban rail rail_electric rail_fast ship cable_car subway" speed="8.06" length="14.21" shape="4837.88,2799.62 4834.01,2799.08 4831.22,2797.46 4829.51,2794.74 4828.89,2790.93"/>
    </edge>
    <edge id=":2225294628_4" function="internal">
        <lane id=":2225294628_4_0" index="0" disallow="tram rail_urban rail rail_electric rail_fast ship cable_car subway" speed="3.65" length="4.67" shape="4837.88,2799.62 4836.68,2798.82 4836.28,2798.02 4836.68,2797.22 4837.87,2796.42"/>
    </edge>
    <edge id=":2225294628_5" function="internal">
        <lane id=":2225294628_5_0" index="0" disallow="tram rail_urban rail rail_electric rail_fast ship cable_car subway" speed="6.57" length="9.11" shape="4832.09,2790.86 4832.49,2793.30 4833.59,2795.04 4835.38,2796.08 4837.87,2796.42"/>
    </edge>
    <edge id=":2225294628_6" function="internal">
        <lane id=":2225294628_6_0" index="0" disallow="tram rail_urban rail rail_electric rail_fast ship cable_car subway" speed="13.89" length="14.40" shape="4832.09,2790.86 4832.36,2805.26"/>
    </edge>
    <edge id=":2225294631_0" function="internal">
        <lane id=":2225294631_0_0" index="0" allow="pedestrian bicycle" speed="4.17" length="1.07" width="2.00" shape="4973.95,2785.36 4974.00,2785.08 4974.16,2784.92 4974.35,2784.77 4974.51,2784.50"/>
    </edge>
    <edge id=":2225294631_1" function="internal">
        <lane id=":2225294631_1_0" index="0" disallow="tram rail_urban rail rail_electric rail_fast ship cable_car subway" speed="3.65" length="1.44" shape="4973.95,2785.36 4974.70,2784.13"/>
    </edge>
    <edge id=":2225294631_3" function="internal">
        <lane id=":2225294631_3_0" index="0" disallow="tram rail_urban rail rail_electric rail_fast ship cable_car subway" speed="3.65" length="3.23" shape="4974.70,2784.13 4975.48,2783.70 4976.30,2784.07 4977.14,2785.23"/>
    </edge>
    <edge id=":2225294631_2" function="internal">
        <lane id=":2225294631_2_0" index="0" allow="pedestrian bicycle" speed="3.92" length="2.97" width="2.00" shape="4978.12,2782.70 4977.65,2782.88 4977.34,2783.36 4977.17,2784.14 4977.14,2785.23"/>
    </edge>
    <edge id=":2225294638_0" function="internal">
        <lane id=":2225294638_0_0" index="0" allow="pedestrian bicycle" speed="2.78" length="5.51" width="2.00" shape="5775.21,2784.38 5774.96,2782.80 5774.51,2781.78 5773.79,2780.87 5772.73,2779.62"/>
    </edge>
    <edge id=":2225294638_1" function="internal">
        <lane id=":2225294638_1_0" index="0" allow="pedestrian bicycle" speed="2.78" length="6.53" width="2.00" shape="5775.21,2784.38 5775.19,2782.49 5775.54,2781.22 5776.29,2780.05 5777.48,2778.52"/>
    </edge>
    <edge id=":2225294638_2" function="internal">
        <lane id=":2225294638_2_0" index="0" allow="pedestrian bicycle" speed="2.78" length="2.61" width="2.00" shape="5775.21,2784.38 5775.65,2783.58 5776.12,2783.29 5776.64,2783.50 5777.01,2783.96"/>
    </edge>
    <edge id=":2225294638_8" function="internal">
        <lane id=":2225294638_8_0" index="0" allow="pedestrian bicycle" speed="2.78" length="0.31" width="2.00" shape="5777.01,2783.96 5777.21,2784.20"/>
    </edge>
    <edge id=":2225294638_3" function="internal">
        <lane id=":2225294638_3_0" index="0" allow="pedestrian bicycle" speed="2.78" length="5.10" width="2.00" shape="5778.82,2779.53 5777.99,2780.80 5777.44,2781.73 5777.19,2782.73 5777.21,2784.20"/>
    </edge>
    <edge id=":2225294638_4" function="internal">
        <lane id=":2225294638_4_0" index="0" allow="pedestrian bicycle" speed="2.78" length="4.07" width="2.00" shape="5778.82,2779.53 5777.43,2781.16 5775.95,2781.72 5775.63,2781.61"/>
    </edge>
    <edge id=":2225294638_5" function="internal">
        <lane id=":2225294638_5_0" index="0" allow="pedestrian bicycle" speed="2.75" length="2.00" width="2.00" shape="5778.82,2779.53 5778.11,2779.78 5777.64,2779.70 5777.43,2779.28 5777.45,2778.97"/>
    </edge>
    <edge id=":2225294638_9" function="internal">
        <lane id=":2225294638_9_0" index="0" allow="pedestrian bicycle" speed="2.78" length="3.60" width="2.00" shape="5775.63,2781.61 5774.38,2781.20 5772.73,2779.62"/>
    </edge>
    <edge id=":2225294638_10" function="internal">
        <lane id=":2225294638_10_0" index="0" allow="pedestrian bicycle" speed="2.75" length="0.45" width="2.00" shape="5777.45,2778.97 5777.48,2778.52"/>
    </edge>
    <edge id=":2225294638_6" function="internal">
        <lane id=":2225294638_6_0" index="0" allow="pedestrian bicycle" speed="2.78" length="6.67" width="2.00" shape="5773.91,2778.70 5775.36,2780.05 5776.32,2781.09 5776.90,2782.31 5777.21,2784.20"/>
    </edge>
    <edge id=":2225294638_7" function="internal">
        <lane id=":2225294638_7_0" index="0" allow="pedestrian bicycle" speed="2.67" length="2.19" width="2.00" shape="5773.91,2778.70 5773.96,2779.37 5773.78,2779.75 5773.37,2779.83 5772.73,2779.62"/>
    </edge>
    <edge id=":2225294643_0" function="internal">
        <lane id=":2225294643_0_0" index="0" allow="pedestrian bicycle" speed="2.78" length="5.43" width="2.00" shape="5777.56,2788.20 5777.82,2789.74 5778.32,2790.72 5779.12,2791.56 5780.28,2792.68"/>
    </edge>
    <edge id=":2225294643_1" function="internal">
        <lane id=":2225294643_1_0" index="0" allow="pedestrian bicycle" speed="2.78" length="6.77" width="2.00" shape="5777.56,2788.20 5777.60,2790.16 5777.27,2791.49 5776.57,2792.73 5775.46,2794.41"/>
    </edge>
    <edge id=":2225294643_2" function="internal">
        <lane id=":2225294643_2_0" index="0" allow="pedestrian bicycle" speed="2.78" length="2.92" width="2.00" shape="5777.56,2788.20 5777.13,2788.99 5776.65,2789.29 5776.13,2789.08 5775.57,2788.38"/>
    </edge>
    <edge id=":2225294648_0" function="internal">
        <lane id=":2225294648_0_0" index="0" disallow="tram rail_urban rail rail_electric rail_fast ship cable_car subway" speed="7.77" length="10.66" shape="6253.24,2820.14 6251.59,2818.34 6249.44,2817.36 6246.80,2817.19 6243.66,2817.84"/>
    </edge>
    <edge id=":2225294648_1" function="internal">
        <lane id=":2225294648_1_0" index="0" disallow="tram rail_urban rail rail_electric rail_fast ship cable_car subway" speed="13.89" length="14.73" shape="6253.24,2820.14 6245.10,2807.87"/>
    </edge>
    <edge id=":2225294648_2" function="internal">
        <lane id=":2225294648_2_0" index="0" disallow="tram rail_urban rail rail_electric rail_fast ship cable_car subway" speed="13.89" length="14.84" shape="6247.73,2806.06 6255.94,2818.42"/>
    </edge>
    <edge id=":2225294648_3" function="internal">
        <lane id=":2225294648_3_0" index="0" disallow="tram rail_urban rail rail_electric rail_fast ship cable_car subway" speed="7.57" length="4.55" shape="6247.73,2806.06 6249.71,2810.04 6249.71,2810.14"/>
    </edge>
    <edge id=":2225294648_7" function="internal">
        <lane id=":2225294648_7_0" index="0" disallow="tram rail_urban rail rail_electric rail_fast ship cable_car subway" speed="7.57" length="10.93" shape="6249.71,2810.14 6249.68,2813.33 6247.67,2815.93 6243.66,2817.84"/>
    </edge>
    <edge id=":2225294648_4" function="internal">
        <lane id=":2225294648_4_0" index="0" disallow="tram rail_urban rail rail_electric rail_fast ship cable_car subway" speed="5.96" length="9.09" shape="6242.70,2814.79 6245.06,2813.67 6246.24,2812.14 6246.25,2810.21 6245.10,2807.87"/>
    </edge>
    <edge id=":2225294648_5" function="internal">
        <lane id=":2225294648_5_0" index="0" disallow="tram rail_urban rail rail_electric rail_fast ship cable_car subway" speed="9.09" length="14.88" shape="6242.70,2814.79 6246.95,2813.95 6250.57,2814.27 6253.57,2815.76 6255.94,2818.42"/>
    </edge>
    <edge id=":2225294648_6" function="internal">
        <lane id=":2225294648_6_0" index="0" disallow="tram rail_urban rail rail_electric rail_fast ship cable_car subway" speed="3.65" length="4.67" shape="6242.70,2814.79 6244.08,2815.20 6244.70,2815.84 6244.56,2816.72 6243.66,2817.84"/>
    </edge>
    <edge id=":2225294649_0" function="internal">
        <lane id=":2225294649_0_0" index="0" disallow="tram rail_urban rail rail_electric rail_fast ship cable_car subway" speed="5.56" length="14.40" shape="4985.30,2838.54 4970.91,2839.18"/>
    </edge>
    <edge id=":2225294649_1" function="internal">
        <lane id=":2225294649_1_0" index="0" disallow="tram rail_urban rail rail_electric rail_fast ship cable_car subway" speed="5.56" length="14.20" shape="4985.30,2838.54 4981.44,2838.16 4978.62,2836.63 4976.84,2833.95 4976.09,2830.13"/>
    </edge>
    <edge id=":2225294649_2" function="internal">
        <lane id=":2225294649_2_0" index="0" disallow="tram rail_urban rail rail_electric rail_fast ship cable_car subway" speed="3.65" length="4.67" shape="4985.30,2838.54 4984.07,2837.79 4983.63,2837.01 4984.00,2836.19 4985.16,2835.34"/>
    </edge>
    <edge id=":2225294649_3" function="internal">
        <lane id=":2225294649_3_0" index="0" disallow="tram rail_urban rail rail_electric rail_fast ship cable_car subway" speed="5.56" length="9.06" shape="4979.29,2829.97 4979.76,2832.41 4980.90,2834.12 4982.70,2835.10 4985.16,2835.34"/>
    </edge>
    <edge id=":2225294649_4" function="internal">
        <lane id=":2225294649_4_0" index="0" disallow="tram rail_urban rail rail_electric rail_fast ship cable_car subway" speed="5.56" length="14.22" shape="4979.29,2829.97 4978.94,2833.85 4977.42,2836.68 4974.75,2838.45 4970.91,2839.18"/>
    </edge>
    <edge id=":2225294649_5" function="internal">
        <lane id=":2225294649_5_0" index="0" disallow="tram rail_urban rail rail_electric rail_fast ship cable_car subway" speed="3.65" length="4.67" shape="4979.29,2829.97 4978.55,2831.20 4977.77,2831.64 4976.95,2831.29 4976.09,2830.13"/>
    </edge>
    <edge id=":2225294649_6" function="internal">
        <lane id=":2225294649_6_0" index="0" disallow="tram rail_urban rail rail_electric rail_fast ship cable_car subway" speed="5.56" length="9.03" shape="4970.77,2835.98 4973.21,2835.52 4974.91,2834.39 4975.87,2832.60 4976.09,2830.13"/>
    </edge>
    <edge id=":2225294649_7" function="internal">
        <lane id=":2225294649_7_0" index="0" disallow="tram rail_urban rail rail_electric rail_fast ship cable_car subway" speed="5.56" length="14.40" shape="4970.77,2835.98 4985.16,2835.34"/>
    </edge>
    <edge id=":2225294649_8" function="internal">
        <lane id=":2225294649_8_0" index="0" disallow="tram rail_urban rail rail_electric rail_fast ship cable_car subway" speed="3.65" length="4.67" shape="4970.77,2835.98 4972.01,2836.73 4972.44,2837.51 4972.08,2838.32 4970.91,2839.18"/>
    </edge>
    <edge id=":2225294657_0" function="internal">
        <lane id=":2225294657_0_0" index="0" disallow="tram rail_urban rail rail_electric rail_fast ship cable_car subway" speed="5.56" length="7.58" shape="5171.49,2851.21 5171.12,2849.10 5170.33,2847.80 5169.09,2846.72 5167.35,2845.25"/>
    </edge>
    <edge id=":2225294657_1" function="internal">
        <lane id=":2225294657_1_0" index="0" disallow="tram rail_urban rail rail_electric rail_fast ship cable_car subway" speed="3.65" length="4.67" shape="5171.49,2851.21 5172.21,2849.97 5172.99,2849.52 5173.81,2849.87 5174.68,2851.02"/>
    </edge>
    <edge id=":2225294657_2" function="internal">
        <lane id=":2225294657_2_0" index="0" disallow="tram rail_urban rail rail_electric rail_fast ship cable_car subway" speed="5.56" length="10.02" shape="5169.54,2842.91 5171.78,2844.89 5173.32,2846.40 5174.25,2848.19 5174.68,2851.02"/>
    </edge>
    <edge id=":2225294657_3" function="internal">
        <lane id=":2225294657_3_0" index="0" disallow="tram rail_urban rail rail_electric rail_fast ship cable_car subway" speed="3.65" length="4.67" shape="5169.54,2842.91 5169.87,2844.32 5169.61,2845.18 5168.78,2845.49 5167.35,2845.25"/>
    </edge>
    <edge id=":2225294658_0" function="internal">
        <lane id=":2225294658_0_0" index="0" allow="pedestrian bicycle" speed="8.34" length="8.02" width="2.00" shape="5816.39,2832.91 5816.02,2830.75 5815.04,2829.49 5813.56,2828.45 5811.69,2826.91"/>
    </edge>
    <edge id=":2225294658_1" function="internal">
        <lane id=":2225294658_1_0" index="0" disallow="tram rail_urban rail rail_electric rail_fast ship cable_car subway" speed="13.89" length="8.51" shape="5816.39,2832.91 5816.46,2824.40"/>
    </edge>
    <edge id=":2225294658_2" function="internal">
        <lane id=":2225294658_2_0" index="0" disallow="tram rail_urban rail rail_electric rail_fast ship cable_car subway" speed="13.89" length="8.45" shape="5819.66,2824.44 5819.59,2832.89"/>
    </edge>
    <edge id=":2225294658_3" function="internal">
        <lane id=":2225294658_3_0" index="0" allow="pedestrian bicycle" speed="6.30" length="4.07" width="2.00" shape="5819.66,2824.44 5819.12,2828.47"/>
    </edge>
    <edge id=":2225294658_7" function="internal">
        <lane id=":2225294658_7_0" index="0" allow="pedestrian bicycle" speed="6.30" length="9.29" width="2.00" shape="5819.12,2828.47 5817.61,2830.23 5815.13,2829.71 5811.69,2826.91"/>
    </edge>
    <edge id=":2225294658_4" function="internal">
        <lane id=":2225294658_4_0" index="0" allow="pedestrian bicycle" speed="4.22" length="5.70" width="2.00" shape="5813.07,2825.54 5814.53,2826.70 5815.59,2826.91 5816.23,2826.14 5816.46,2824.40"/>
    </edge>
    <edge id=":2225294658_5" function="internal">
        <lane id=":2225294658_5_0" index="0" allow="pedestrian bicycle" speed="8.34" length="10.38" width="2.00" shape="5813.07,2825.54 5815.56,2827.45 5817.63,2828.67 5819.05,2830.15 5819.59,2832.89"/>
    </edge>
    <edge id=":2225294658_6" function="internal">
        <lane id=":2225294658_6_0" index="0" allow="pedestrian bicycle" speed="2.78" length="2.85" width="2.00" shape="5813.07,2825.54 5813.24,2826.40 5813.07,2826.91 5812.55,2827.09 5811.69,2826.91"/>
    </edge>
    <edge id=":2225294668_0" function="internal">
        <lane id=":2225294668_0_0" index="0" disallow="tram rail_urban rail rail_electric rail_fast ship cable_car subway" speed="5.56" length="16.90" shape="5902.58,2858.17 5899.22,2855.84 5895.52,2853.34 5891.68,2851.23 5887.88,2850.08"/>
    </edge>
    <edge id=":2225294668_1" function="internal">