<?xml version="1.0" encoding="UTF-8"?>

<!-- generated on 2024-10-26 14:21:02 by Eclipse SUMO netedit Version 1.20.0
-->

<routes xmlns:xsi="http://www.w3.org/2001/XMLSchema-instance" xsi:noNamespaceSchemaLocation="http://sumo.dlr.de/xsd/routes_file.xsd">
    <!-- VTypes -->
    <vType id="evehicle" length="2.88" minGap="2.50" maxSpeed="12.50" vClass="evehicle" emissionClass="Energy/default" accel="1.0" decel="1.0" sigma="0.0">
        <param key="airDragCoefficient" value="0.6"/>
        <param key="constantPowerIntake" value="100"/>
        <param key="device.battery.capacity" value="7200"/>
        <param key="device.battery.chargeLevel" value="7200"/>
        <param key="device.battery.stoppingThreshold" value="0.1"/>
        <param key="engine.efficiency" value="0.9"/>
        <param key="frontSurfaceArea" value="2.55"/>
        <param key="has.battery.device" value="true"/>
        <param key="mass" value="700"/>
        <param key="maximumPower" value="1000"/>
        <param key="propulsionEfficiency" value="0.9"/>
        <param key="radialDragCoefficient" value="0.5"/>
        <param key="recuperationEfficiency" value="1"/>
        <param key="rollDragCoefficient" value="0.01"/>
        <param key="rotatingMass" value="0.01"/>
    </vType>
    <!-- Vehicles, persons and containers (sorted by depart) -->
    <vehicle id="v_0" type="evehicle" depart="0.00">
        <route edges="591658296#2 699410074#3 -699410074#3 -591658296#2 591658296#2"/>
    </vehicle>
    <vehicle id="v_3429" type="evehicle" depart="0.00">
        <route edges="369625682#3 369625682#4 -387337620 369628890#12 369625682#3"/>
        <stop containerStop="29" duration="10.00"/>
        <stop containerStop="28" duration="10.00"/>
    </vehicle>
</routes>
