<?xml version="1.0" encoding="UTF-8"?>

<!-- generated on 2025-03-07 15:37:30 by Eclipse SUMO netedit Version 1.22.0
-->

<additional xmlns:xsi="http://www.w3.org/2001/XMLSchema-instance" xsi:noNamespaceSchemaLocation="http://sumo.dlr.de/xsd/additional_file.xsd">
    <!-- StoppingPlaces -->
    <containerStop id="ct_0" lane="137945373#0_0" startPos="20.78" endPos="30.78"/>
    <containerStop id="ct_1" lane="725369633#3_0" startPos="30.13" endPos="40.13"/>
    <containerStop id="ct_10" lane="713355659#2_0" startPos="28.86" endPos="38.86"/>
    <containerStop id="ct_100" lane="-212706366#0_0" startPos="100.94" endPos="110.94"/>
    <containerStop id="ct_101" lane="372823946#1_1" startPos="97.93" endPos="107.93"/>
    <containerStop id="ct_102" lane="-275157768#8_0" startPos="57.30" endPos="67.30"/>
    <containerStop id="ct_103" lane="275157768#3_0" startPos="12.71" endPos="22.71"/>
    <containerStop id="ct_104" lane="272790860#1_0" startPos="42.18" endPos="52.18"/>
    <containerStop id="ct_105" lane="275157770#0_0" startPos="22.86" endPos="32.86"/>
    <containerStop id="ct_106" lane="275157770#3_0" startPos="9.19" endPos="19.19"/>
    <containerStop id="ct_107" lane="-138074595#1_0" startPos="20.10" endPos="30.10"/>
    <containerStop id="ct_108" lane="138074595#2_0" startPos="18.30" endPos="28.30"/>
    <containerStop id="ct_109" lane="-138074595#2_0" startPos="11.96" endPos="21.96"/>
    <containerStop id="ct_11" lane="-137945400#0_0" startPos="20.56" endPos="30.56"/>
    <containerStop id="ct_110" lane="-212682830#0_0" startPos="22.08" endPos="32.08"/>
    <containerStop id="ct_111" lane="212682830#0_0" startPos="17.22" endPos="27.22"/>
    <containerStop id="ct_112" lane="212701280_0" startPos="4.53" endPos="14.53"/>
    <containerStop id="ct_113" lane="443957056_0" startPos="46.94" endPos="56.94"/>
    <containerStop id="ct_114" lane="-275157761#2_0" startPos="13.66" endPos="23.66"/>
    <containerStop id="ct_115" lane="138074595#3_0" startPos="11.79" endPos="21.79"/>
    <containerStop id="ct_116" lane="212682783#0_0" startPos="23.22" endPos="33.22"/>
    <containerStop id="ct_117" lane="-212682783#0_0" startPos="19.43" endPos="29.43"/>
    <containerStop id="ct_118" lane="-138074617#1_0" startPos="43.05" endPos="46.05"/>
    <containerStop id="ct_119" lane="275157761#1_0" startPos="17.48" endPos="27.48"/>
    <containerStop id="ct_12" lane="213118408#1_0" startPos="31.10" endPos="34.10"/>
    <containerStop id="ct_120" lane="-212682822#1_0" startPos="37.11" endPos="40.11"/>
    <containerStop id="ct_121" lane="212682822#1_0" startPos="31.12" endPos="41.12"/>
    <containerStop id="ct_122" lane="235445423#9_0" startPos="39.02" endPos="42.02"/>
    <containerStop id="ct_123" lane="460219337#1_0" startPos="38.14" endPos="48.14"/>
    <containerStop id="ct_124" lane="460219337#0_0" startPos="35.88" endPos="45.88"/>
    <containerStop id="ct_125" lane="-212682837#0_0" startPos="104.55" endPos="107.55"/>
    <containerStop id="ct_126" lane="212682837#0_0" startPos="35.83" endPos="45.83"/>
    <containerStop id="ct_127" lane="-212682782#0_0" startPos="21.16" endPos="31.16"/>
    <containerStop id="ct_128" lane="212682837#1_0" startPos="28.36" endPos="38.36"/>
    <containerStop id="ct_129" lane="-444293148#2_0" startPos="15.07" endPos="18.07"/>
    <containerStop id="ct_13" lane="-713355659#1_0" startPos="5.99" endPos="15.99"/>
    <containerStop id="ct_130" lane="212682785#1_0" startPos="46.21" endPos="56.21"/>
    <containerStop id="ct_131" lane="-212682790#1_0" startPos="59.04" endPos="69.04"/>
    <containerStop id="ct_132" lane="212682790#1_0" startPos="41.67" endPos="51.67"/>
    <containerStop id="ct_133" lane="-212682835#1_0" startPos="53.49" endPos="63.49"/>
    <containerStop id="ct_134" lane="444292029#0_0" startPos="6.65" endPos="16.65"/>
    <containerStop id="ct_135" lane="-444292029#2_0" startPos="18.11" endPos="28.11"/>
    <containerStop id="ct_136" lane="138074595#4_0" startPos="158.93" endPos="168.93"/>
    <containerStop id="ct_137" lane="138074617#3_0" startPos="7.09" endPos="17.09"/>
    <containerStop id="ct_138" lane="-138074617#2_0" startPos="12.81" endPos="22.81"/>
    <containerStop id="ct_139" lane="212682783#1_0" startPos="50.88" endPos="60.88"/>
    <containerStop id="ct_14" lane="137945400#1_0" startPos="38.68" endPos="48.68"/>
    <containerStop id="ct_140" lane="138074595#4_0" startPos="51.47" endPos="61.47"/>
    <containerStop id="ct_141" lane="-138074595#4_0" startPos="85.21" endPos="95.21"/>
    <containerStop id="ct_142" lane="443957055#3_0" startPos="15.40" endPos="25.40"/>
    <containerStop id="ct_143" lane="443957055#5_0" startPos="22.81" endPos="32.81"/>
    <containerStop id="ct_144" lane="212709050_0" startPos="11.44" endPos="21.44"/>
    <containerStop id="ct_145" lane="-443955345#3_0" startPos="8.46" endPos="18.46"/>
    <containerStop id="ct_146" lane="-212709047_0" startPos="19.19" endPos="29.19"/>
    <containerStop id="ct_147" lane="212709049_0" startPos="4.55" endPos="14.55"/>
    <containerStop id="ct_148" lane="-697225566#1_0" startPos="29.53" endPos="32.53"/>
    <containerStop id="ct_149" lane="212709065#23_0" startPos="43.41" endPos="53.41"/>
    <containerStop id="ct_15" lane="137945400#2_0" startPos="22.84" endPos="32.84"/>
    <containerStop id="ct_150" lane="212709066#1_0" startPos="24.79" endPos="34.79"/>
    <containerStop id="ct_151" lane="-212709066#1_0" startPos="21.49" endPos="31.49"/>
    <containerStop id="ct_152" lane="212709060_0" startPos="165.30" endPos="175.30"/>
    <containerStop id="ct_153" lane="-212709060_0" startPos="112.27" endPos="122.27"/>
    <containerStop id="ct_154" lane="-212709060_0" startPos="9.65" endPos="19.65"/>
    <containerStop id="ct_155" lane="-443955353_0" startPos="53.46" endPos="63.46"/>
    <containerStop id="ct_156" lane="-443955345#0_0" startPos="11.57" endPos="21.57"/>
    <containerStop id="ct_157" lane="-443955343#0_0" startPos="122.14" endPos="132.14"/>
    <containerStop id="ct_158" lane="443955345#1_0" startPos="33.60" endPos="36.60"/>
    <containerStop id="ct_159" lane="212709081#2_0" startPos="18.34" endPos="28.34"/>
    <containerStop id="ct_16" lane="213118377_0" startPos="49.89" endPos="59.89"/>
    <containerStop id="ct_160" lane="470923274#6_2" startPos="49.18" endPos="59.18"/>
    <containerStop id="ct_161" lane="-212709058_0" startPos="31.06" endPos="41.06"/>
    <containerStop id="ct_162" lane="-212709044#4_0" startPos="13.38" endPos="23.38"/>
    <containerStop id="ct_163" lane="212709081#0_0" startPos="33.01" endPos="43.01"/>
    <containerStop id="ct_164" lane="-212709090#0_0" startPos="53.43" endPos="63.43"/>
    <containerStop id="ct_165" lane="212709054#6_0" startPos="8.38" endPos="18.38"/>
    <containerStop id="ct_166" lane="212709054#5_0" startPos="38.20" endPos="48.20"/>
    <containerStop id="ct_167" lane="212709085#0_0" startPos="44.48" endPos="54.48"/>
    <containerStop id="ct_168" lane="-443955351#2_0" startPos="14.43" endPos="24.43"/>
    <containerStop id="ct_169" lane="-212709088#2_0" startPos="35.25" endPos="45.25"/>
    <containerStop id="ct_17" lane="-213118377_0" startPos="51.62" endPos="61.62"/>
    <containerStop id="ct_170" lane="-212709045#0_0" startPos="57.31" endPos="67.31"/>
    <containerStop id="ct_171" lane="-212709054#5_0" startPos="52.59" endPos="55.59"/>
    <containerStop id="ct_172" lane="212709054#3_0" startPos="60.07" endPos="70.07"/>
    <containerStop id="ct_173" lane="-212709079#0_0" startPos="6.56" endPos="16.56"/>
    <containerStop id="ct_174" lane="443955352_0" startPos="30.23" endPos="40.23"/>
    <containerStop id="ct_175" lane="-443955351#1_0" startPos="17.75" endPos="27.75"/>
    <containerStop id="ct_176" lane="-443955351#0_0" startPos="8.03" endPos="18.03"/>
    <containerStop id="ct_177" lane="138074612_0" startPos="6.46" endPos="16.46"/>
    <containerStop id="ct_178" lane="275157759#0_0" startPos="29.33" endPos="39.33"/>
    <containerStop id="ct_179" lane="-443955349_0" startPos="48.46" endPos="58.46"/>
    <containerStop id="ct_18" lane="-137945409#5_0" startPos="16.78" endPos="26.78"/>
    <containerStop id="ct_180" lane="443955349_0" startPos="18.24" endPos="28.24"/>
    <containerStop id="ct_181" lane="-138074612_0" startPos="8.13" endPos="18.13"/>
    <containerStop id="ct_182" lane="-724024576#9_0" startPos="21.74" endPos="24.74"/>
    <containerStop id="ct_183" lane="212709069_0" startPos="14.98" endPos="24.98"/>
    <containerStop id="ct_184" lane="-212709069_0" startPos="88.53" endPos="98.53"/>
    <containerStop id="ct_185" lane="212709069_0" startPos="104.23" endPos="114.23"/>
    <containerStop id="ct_186" lane="275157739#2_0" startPos="6.73" endPos="16.73"/>
    <containerStop id="ct_187" lane="212709092_0" startPos="30.21" endPos="40.21"/>
    <containerStop id="ct_188" lane="212709044#2_0" startPos="18.35" endPos="28.35"/>
    <containerStop id="ct_189" lane="212709086#2_0" startPos="27.20" endPos="37.20"/>
    <containerStop id="ct_19" lane="213118356#2_0" startPos="81.34" endPos="91.34"/>
    <containerStop id="ct_190" lane="212709084_0" startPos="31.59" endPos="41.59"/>
    <containerStop id="ct_191" lane="-212709082#4_0" startPos="23.11" endPos="26.11"/>
    <containerStop id="ct_192" lane="443955348#1_0" startPos="3.29" endPos="13.29"/>
    <containerStop id="ct_193" lane="212709065#12_0" startPos="1.15" friendlyPos="true"/>
    <containerStop id="ct_194" lane="212709077#0_0" startPos="41.67" endPos="51.67"/>
    <containerStop id="ct_195" lane="-212709080#1_0" startPos="27.34" endPos="37.34"/>
    <containerStop id="ct_196" lane="212709077#1_0" startPos="32.11" endPos="42.11"/>
    <containerStop id="ct_197" lane="-212709080#2_0" startPos="8.71" endPos="18.71"/>
    <containerStop id="ct_198" lane="212709080#3_0" startPos="34.46" endPos="37.46"/>
    <containerStop id="ct_199" lane="-212709065#11_0" startPos="5.89" endPos="8.89"/>
    <containerStop id="ct_2" lane="-137945408#1_0" startPos="34.38" endPos="37.38"/>
    <containerStop id="ct_20" lane="-213118356#2_0" startPos="52.30" endPos="62.30"/>
    <containerStop id="ct_200" lane="-212709062#0_0" startPos="8.57" endPos="18.57"/>
    <containerStop id="ct_201" lane="212709082#1_0" startPos="11.11" endPos="21.11"/>
    <containerStop id="ct_202" lane="212709067#0_0" startPos="19.21" endPos="29.21"/>
    <containerStop id="ct_203" lane="-212709067#0_0" startPos="68.75" endPos="78.75"/>
    <containerStop id="ct_204" lane="212709070#0_0" startPos="71.05" endPos="81.05"/>
    <containerStop id="ct_205" lane="212709070#1_0" startPos="29.42" endPos="39.42"/>
    <containerStop id="ct_206" lane="-212709067#1_0" startPos="23.84" endPos="33.84"/>
    <containerStop id="ct_207" lane="212709059_0" startPos="138.42" endPos="148.42"/>
    <containerStop id="ct_208" lane="212709059_0" startPos="37.02" endPos="47.02"/>
    <containerStop id="ct_209" lane="212709063_0" startPos="122.12" endPos="132.12"/>
    <containerStop id="ct_21" lane="213118436#1_0" startPos="48.59" endPos="58.59"/>
    <containerStop id="ct_210" lane="-212709063_0" startPos="100.38" endPos="110.38"/>
    <containerStop id="ct_211" lane="212709063_0" startPos="35.96" endPos="45.96"/>
    <containerStop id="ct_212" lane="212709073#0_0" startPos="27.10" endPos="37.10"/>
    <containerStop id="ct_213" lane="212709076#0_0" startPos="49.65" endPos="59.65"/>
    <containerStop id="ct_214" lane="-212709089#1_0" startPos="10.26" endPos="20.26"/>
    <containerStop id="ct_215" lane="-212709076#1_0" startPos="19.22" endPos="29.22"/>
    <containerStop id="ct_216" lane="212709078#0_0" startPos="17.16" endPos="20.16"/>
    <containerStop id="ct_217" lane="-212709053_0" startPos="5.49" endPos="8.49"/>
    <containerStop id="ct_218" lane="470923274#2_0" startPos="109.64" endPos="119.64"/>
    <containerStop id="ct_219" lane="-212709089#0_0" startPos="13.14" endPos="23.14"/>
    <containerStop id="ct_22" lane="213118446#1_0" startPos="8.73" endPos="18.73"/>
    <containerStop id="ct_220" lane="-213118422#1_0" startPos="3.66" friendlyPos="true"/>
    <containerStop id="ct_221" lane="698853097#0_0" startPos="16.74" endPos="26.74"/>
    <containerStop id="ct_222" lane="212706378#0_0" startPos="20.95" endPos="30.95"/>
    <containerStop id="ct_223" lane="-444291978#0_0" startPos="9.53" endPos="12.53"/>
    <containerStop id="ct_224" lane="452398495#2_0" startPos="83.83" endPos="93.83"/>
    <containerStop id="ct_225" lane="-452398495#2_0" startPos="60.54" endPos="70.54"/>
    <containerStop id="ct_226" lane="-444291978#2_0" startPos="57.22" endPos="67.22"/>
    <containerStop id="ct_227" lane="444291978#0_0" startPos="7.80" endPos="10.80"/>
    <containerStop id="ct_228" lane="-212706372#2_0" startPos="33.93" endPos="43.93"/>
    <containerStop id="ct_229" lane="-212706378#1_0" startPos="77.82" endPos="87.82"/>
    <containerStop id="ct_23" lane="-213118446#1_0" startPos="31.18" endPos="41.18"/>
    <containerStop id="ct_230" lane="212706378#1_0" startPos="61.71" endPos="71.71"/>
    <containerStop id="ct_231" lane="212706372#0_0" startPos="43.61" endPos="53.61"/>
    <containerStop id="ct_232" lane="138074610#7_0" startPos="76.79" endPos="79.79"/>
    <containerStop id="ct_233" lane="452398500#2_0" startPos="15.77" endPos="25.77"/>
    <containerStop id="ct_234" lane="452398503#4_0" startPos="46.96" endPos="56.96"/>
    <containerStop id="ct_235" lane="452398503#1_0" startPos="5.68" endPos="8.68"/>
    <containerStop id="ct_236" lane="-452398495#0_0" startPos="62.30" endPos="72.30"/>
    <containerStop id="ct_237" lane="452398504#1_0" startPos="26.33" endPos="36.33"/>
    <containerStop id="ct_238" lane="212402303#3_0" startPos="30.07" endPos="40.07"/>
    <containerStop id="ct_239" lane="-453772978#3_0" startPos="10.45" endPos="20.45"/>
    <containerStop id="ct_24" lane="-137945409#8_0" startPos="10.81" endPos="20.81"/>
    <containerStop id="ct_240" lane="-138074610#6_0" startPos="14.81" endPos="24.81"/>
    <containerStop id="ct_241" lane="212682838#1_0" startPos="7.01" endPos="17.01"/>
    <containerStop id="ct_242" lane="-212682831#3_0" startPos="12.00" endPos="22.00"/>
    <containerStop id="ct_243" lane="-212402311#3_0" startPos="70.87" endPos="80.87"/>
    <containerStop id="ct_244" lane="-212402381#0_0" startPos="118.19" endPos="121.19"/>
    <containerStop id="ct_245" lane="-212402311#1_0" startPos="10.19" endPos="20.19"/>
    <containerStop id="ct_246" lane="-444292008#0_0" startPos="30.22" endPos="33.22"/>
    <containerStop id="ct_247" lane="212682795_0" startPos="25.82" endPos="35.82"/>
    <containerStop id="ct_248" lane="212682833#0_0" startPos="27.53" endPos="37.53"/>
    <containerStop id="ct_249" lane="212682833#3_0" startPos="6.49" endPos="9.49"/>
    <containerStop id="ct_25" lane="137945409#6_0" startPos="9.35" endPos="12.35"/>
    <containerStop id="ct_250" lane="-212682833#0_0" startPos="21.81" endPos="31.81"/>
    <containerStop id="ct_251" lane="-212402297#0_0" startPos="179.22" endPos="189.22"/>
    <containerStop id="ct_252" lane="444291996#1_0" startPos="61.25" endPos="71.25"/>
    <containerStop id="ct_253" lane="-212706356#0_0" startPos="4.69" endPos="7.69"/>
    <containerStop id="ct_254" lane="-444292000#4_0" startPos="3.79" endPos="13.79"/>
    <containerStop id="ct_255" lane="212706353#1_0" startPos="1.58" endPos="11.58"/>
    <containerStop id="ct_256" lane="-212706364#2_0" startPos="43.42" endPos="53.42"/>
    <containerStop id="ct_257" lane="-444292011#8_0" startPos="7.33" endPos="17.33"/>
    <containerStop id="ct_258" lane="444291994#2_0" startPos="14.24" endPos="24.24"/>
    <containerStop id="ct_259" lane="212706388#3_0" startPos="24.33" endPos="34.33"/>
    <containerStop id="ct_26" lane="-137945359#0_0" startPos="52.09" endPos="62.09"/>
    <containerStop id="ct_260" lane="-444291994#0_0" startPos="4.42" endPos="14.42"/>
    <containerStop id="ct_261" lane="212706369#0_0" startPos="42.74" endPos="52.74"/>
    <containerStop id="ct_262" lane="212706388#0_0" startPos="2.79" endPos="5.79"/>
    <containerStop id="ct_263" lane="-212706371_0" startPos="28.86" endPos="38.86"/>
    <containerStop id="ct_264" lane="697983201#1_0" startPos="216.23" endPos="226.23"/>
    <containerStop id="ct_265" lane="-212706367#0_0" startPos="36.13" endPos="46.13"/>
    <containerStop id="ct_266" lane="-444292003#0_0" startPos="67.19" endPos="77.19"/>
    <containerStop id="ct_267" lane="-444292011#5_0" startPos="23.98" endPos="26.98"/>
    <containerStop id="ct_268" lane="444292000#2_0" startPos="13.81" endPos="23.81"/>
    <containerStop id="ct_269" lane="-212706340_0" startPos="27.71" endPos="37.71"/>
    <containerStop id="ct_27" lane="137945409#5_0" startPos="3.46" endPos="13.46"/>
    <containerStop id="ct_270" lane="444291984#8_0" startPos="51.84" endPos="61.84"/>
    <containerStop id="ct_271" lane="263520337#10_0" startPos="27.38" endPos="37.38"/>
    <containerStop id="ct_272" lane="212712097#24_0" startPos="38.87" endPos="48.87"/>
    <containerStop id="ct_273" lane="642121510_0" startPos="22.74" endPos="32.74"/>
    <containerStop id="ct_274" lane="-212712119#5_0" startPos="11.45" endPos="21.45"/>
    <containerStop id="ct_278" lane="605647262#0_0" startPos="36.37" endPos="46.37"/>
    <containerStop id="ct_28" lane="137945359#1_0" startPos="36.89" endPos="46.89"/>
    <containerStop id="ct_29" lane="137945359#1_0" startPos="100.91" endPos="110.91"/>
    <containerStop id="ct_3" lane="-137945425#2_0" startPos="41.58" endPos="44.58"/>
    <containerStop id="ct_30" lane="137945409#4_0" startPos="6.08" endPos="16.08"/>
    <containerStop id="ct_31" lane="213118427#0_0" startPos="7.00" endPos="17.00"/>
    <containerStop id="ct_32" lane="213118427#0_0" startPos="49.56" endPos="52.56"/>
    <containerStop id="ct_33" lane="213118383_0" startPos="109.61" endPos="119.61"/>
    <containerStop id="ct_34" lane="252874434#12_0" startPos="42.52" endPos="52.52"/>
    <containerStop id="ct_35" lane="252874434#11_0" startPos="23.78" endPos="33.78"/>
    <containerStop id="ct_36" lane="252874434#12_0" startPos="105.50" endPos="115.50"/>
    <containerStop id="ct_37" lane="373190677#9_0" startPos="100.56" endPos="110.56"/>
    <containerStop id="ct_38" lane="-137963984#1_0" startPos="16.37" endPos="26.37"/>
    <containerStop id="ct_39" lane="373190677#6_1" startPos="11.26" endPos="21.26"/>
    <containerStop id="ct_4" lane="275157759#1_0" startPos="30.36" endPos="33.36"/>
    <containerStop id="ct_40" lane="373190677#9_0" startPos="216.80" endPos="219.80"/>
    <containerStop id="ct_41" lane="-137963984#2_0" startPos="49.56" endPos="59.56"/>
    <containerStop id="ct_42" lane="-364186014#9_0" startPos="33.86" endPos="43.86"/>
    <containerStop id="ct_43" lane="1177093657_0" startPos="63.67" endPos="73.67"/>
    <containerStop id="ct_44" lane="137963984#2_0" startPos="36.21" endPos="46.21"/>
    <containerStop id="ct_45" lane="-1177098340#0_0" startPos="9.75" endPos="19.75"/>
    <containerStop id="ct_46" lane="137963977#6_0" startPos="0.42" endPos="3.42"/>
    <containerStop id="ct_47" lane="212743432_0" startPos="11.73" endPos="21.73"/>
    <containerStop id="ct_48" lane="137963968#1_0" startPos="65.94" endPos="75.94"/>
    <containerStop id="ct_49" lane="137963968#5_0" startPos="5.48" endPos="8.48"/>
    <containerStop id="ct_5" lane="-213118410#1_0" startPos="158.39" endPos="168.39"/>
    <containerStop id="ct_50" lane="-722878944_0" startPos="19.42" endPos="29.42"/>
    <containerStop id="ct_51" lane="-137963977#1_0" startPos="15.96" endPos="18.96"/>
    <containerStop id="ct_52" lane="137963977#2_0" startPos="7.58" endPos="10.58"/>
    <containerStop id="ct_53" lane="137963970#1_0" startPos="25.12" endPos="35.12"/>
    <containerStop id="ct_54" lane="-137963969#3_0" startPos="26.59" endPos="36.59"/>
    <containerStop id="ct_55" lane="137963968#9_0" startPos="56.91" endPos="66.91"/>
    <containerStop id="ct_56" lane="137963970#0_0" startPos="21.36" endPos="31.36"/>
    <containerStop id="ct_57" lane="-137963986#4_0" startPos="14.92" endPos="24.92"/>
    <containerStop id="ct_58" lane="-137963981#0_0" startPos="50.50" endPos="60.50"/>
    <containerStop id="ct_59" lane="-137963981#0_0" startPos="3.23" endPos="13.23"/>
    <containerStop id="ct_6" lane="213118404#0_0" startPos="20.05" endPos="30.05"/>
    <containerStop id="ct_60" lane="-137963981#1_0" startPos="173.35" endPos="183.35"/>
    <containerStop id="ct_61" lane="-274650358#2_0" startPos="23.13" endPos="33.13"/>
    <containerStop id="ct_62" lane="-274650358#2_0" startPos="58.63" endPos="61.63"/>
    <containerStop id="ct_63" lane="274650358#2_0" startPos="23.15" endPos="33.15"/>
    <containerStop id="ct_64" lane="137963969#2_0" startPos="60.05" endPos="70.05"/>
    <containerStop id="ct_65" lane="137963969#2_0" startPos="102.57" endPos="112.57"/>
    <containerStop id="ct_66" lane="137963981#0_0" startPos="17.74" endPos="27.74"/>
    <containerStop id="ct_67" lane="137963980#5_0" startPos="21.81" endPos="31.81"/>
    <containerStop id="ct_68" lane="-137963969#2_0" startPos="96.31" endPos="106.31"/>
    <containerStop id="ct_69" lane="-274650358#1_0" startPos="41.52" endPos="51.52"/>
    <containerStop id="ct_7" lane="-713355660#0_0" startPos="10.41" endPos="13.41"/>
    <containerStop id="ct_70" lane="-137963969#1_0" startPos="40.22" endPos="50.22"/>
    <containerStop id="ct_71" lane="137963975#0_0" startPos="112.48" endPos="122.48"/>
    <containerStop id="ct_72" lane="274650358#0_0" startPos="13.13" endPos="23.13"/>
    <containerStop id="ct_73" lane="137963975#1_0" startPos="73.36" endPos="83.36"/>
    <containerStop id="ct_74" lane="-137963975#1_0" startPos="82.82" endPos="92.82"/>
    <containerStop id="ct_75" lane="-137963975#1_0" startPos="18.62" endPos="28.62"/>
    <containerStop id="ct_76" lane="274651552_0" startPos="23.78" endPos="33.78"/>
    <containerStop id="ct_77" lane="274651552_0" startPos="139.90" endPos="149.90"/>
    <containerStop id="ct_78" lane="373190677#2_0" startPos="17.97" endPos="27.97"/>
    <containerStop id="ct_79" lane="137963986#0_0" startPos="84.06" endPos="94.06"/>
    <containerStop id="ct_8" lane="-213118356#0_0" startPos="55.39" endPos="65.39"/>
    <containerStop id="ct_80" lane="364186014#7_0" startPos="94.05" endPos="104.05"/>
    <containerStop id="ct_81" lane="137945414#0_0" startPos="27.45" endPos="37.45"/>
    <containerStop id="ct_82" lane="-137945414#0_0" startPos="57.68" endPos="67.68"/>
    <containerStop id="ct_83" lane="-373216755_0" startPos="102.44" endPos="112.44"/>
    <containerStop id="ct_84" lane="441323863_0" startPos="68.92" endPos="78.92"/>
    <containerStop id="ct_85" lane="-137963978#1_0" startPos="45.60" endPos="48.60"/>
    <containerStop id="ct_86" lane="-137963983#0_0" startPos="29.70" endPos="39.70"/>
    <containerStop id="ct_87" lane="-373186965#1_0" startPos="53.07" endPos="63.07"/>
    <containerStop id="ct_88" lane="-373186965#1_0" startPos="53.07" endPos="63.07"/>
    <containerStop id="ct_89" lane="212706329#3_0" startPos="16.41" endPos="26.41"/>
    <containerStop id="ct_9" lane="-213118356#1_0" startPos="35.24" endPos="45.24"/>
    <containerStop id="ct_90" lane="374431396#4_0" startPos="34.21" endPos="37.21"/>
    <containerStop id="ct_91" lane="-441323861#0_0" startPos="16.03" endPos="26.03"/>
    <containerStop id="ct_92" lane="-212706384#1_0" startPos="30.21" endPos="40.21"/>
    <containerStop id="ct_93" lane="-212706329#2_0" startPos="51.21" endPos="61.21"/>
    <containerStop id="ct_94" lane="212706389#4_0" startPos="26.81" endPos="29.81"/>
    <containerStop id="ct_95" lane="212706389#5_0" startPos="60.09" endPos="70.09"/>
    <containerStop id="ct_96" lane="212706329#0_0" startPos="48.60" endPos="51.60"/>
    <containerStop id="ct_97" lane="-212706346_0" startPos="18.14" endPos="28.14"/>
    <containerStop id="ct_98" lane="-137963974#4_0" startPos="29.52" endPos="39.52"/>
    <containerStop id="ct_99" lane="441323860#1_0" startPos="45.13" endPos="55.13"/>
    <chargingStation id="cs_0" lane="-213118422#2_0" startPos="0.01" friendlyPos="true"/>
    <chargingStation id="cs_1" lane="263520337#7_0" startPos="202.60" endPos="212.60"/>
    <chargingStation id="cs_2" lane="-213118410#1_0" startPos="103.25" endPos="113.25"/>
    <chargingStation id="cs_3" lane="212709090#2_0" startPos="70.87" endPos="80.87"/>
    <chargingStation id="cs_5" lane="697983201#6_0" startPos="299.74" endPos="309.74"/>
</additional>
